@<TRIPOS>MOLECULE
*****
   67    69     1     0     0
SMALL
gas


@<TRIPOS>ATOM
      1 N            2.6420     6.5080    -5.5870 n1         1 UNL      -0.196260
      2 C            2.4910     6.2450    -4.4900 c1         1 UNL       0.084800
      3 C1           2.2500     5.9040    -3.0780 c3         1 UNL       0.110704
      4 C2           1.2580     4.7240    -2.9270 c3         1 UNL      -0.009591
      5 N1           1.7320     7.0810    -2.3730 n          1 UNL      -0.297892
      6 C3           1.7570     3.3920    -3.5470 c3         1 UNL       0.040059
      7 C4           2.1140     7.4690    -1.1380 c          1 UNL       0.233694
      8 C5           0.6760     2.2870    -3.4510 c3         1 UNL      -0.026010
      9 C6           2.9150     2.8170    -2.7610 c          1 UNL       0.214907
     10 C7           1.2170     8.5150    -0.4980 c3         1 UNL       0.105788
     11 O            3.0120     6.9210    -0.5300 o          1 UNL      -0.275520
     12 C8           1.0910     1.4230    -2.2480 c3         1 UNL       0.011701
     13 O1           4.0620     3.2120    -2.7740 o          1 UNL      -0.277430
     14 N2           2.4870     1.7730    -2.0370 n          1 UNL      -0.315168
     15 N3           0.5580     8.0070     0.7180 n          1 UNL      -0.287674
     16 C9           2.0230     9.7710    -0.1180 cx         1 UNL      -0.003504
     17 C10          0.9090     8.8480     1.8720 c3         1 UNL       0.018714
     18 C11         -0.2040     6.8780     0.7400 c          1 UNL       0.235933
     19 C12          1.8070     9.9980     1.3850 cx         1 UNL      -0.014357
     20 C13          1.3190    11.0300     0.3730 cx         1 UNL      -0.025268
     21 C14         -0.7640     6.3810     2.0780 c3         1 UNL       0.104569
     22 O2          -0.5370     6.3420    -0.3010 o          1 UNL      -0.275298
     23 C15         -0.1770    11.1860     0.0990 c3         1 UNL      -0.059211
     24 C16          2.1320    12.3140     0.2870 c3         1 UNL      -0.059211
     25 C17         -0.0830     5.0600     2.5750 c3         1 UNL      -0.010963
     26 N4          -2.2280     6.2700     2.0020 n          1 UNL      -0.295372
     27 C18         -0.3510     3.8650     1.6220 c3         1 UNL      -0.057890
     28 C19          1.4500     5.2610     2.7000 c3         1 UNL      -0.057890
     29 C20         -0.6300     4.7020     3.9820 c3         1 UNL      -0.057890
     30 C21         -3.0610     7.2920     1.6990 c          1 UNL       0.318002
     31 C22         -4.5230     6.8970     1.5420 c3         1 UNL       0.468466
     32 O3          -2.6720     8.4440     1.6380 o          1 UNL      -0.267204
     33 F           -4.6650     5.8630     0.6910 f          1 UNL      -0.161935
     34 F1          -5.0500     6.5210     2.7220 f          1 UNL      -0.161935
     35 F2          -5.2740     7.9090     1.0690 f          1 UNL      -0.161935
     36 H            3.2120     5.6270    -2.6390 h1         1 UNL       0.066808
     37 H1           0.3090     5.0020    -3.3910 hc         1 UNL       0.030455
     38 H2           1.0560     4.5630    -1.8640 hc         1 UNL       0.030455
     39 H3           0.9360     7.5370    -2.7900 hn         1 UNL       0.150777
     40 H4           2.0390     3.5300    -4.5930 hc         1 UNL       0.040266
     41 H5           0.7060     1.6760    -4.3570 hc         1 UNL       0.029056
     42 H6          -0.3350     2.6850    -3.3380 hc         1 UNL       0.029056
     43 H7           0.4460     8.7880    -1.2250 h1         1 UNL       0.061073
     44 H8           0.9850     0.3560    -2.4660 h1         1 UNL       0.046697
     45 H9           0.5130     1.6930    -1.3600 h1         1 UNL       0.046697
     46 H10          3.1030     1.2130    -1.4670 hn         1 UNL       0.149332
     47 H11          3.0700     9.8520    -0.4230 hc         1 UNL       0.033649
     48 H12          1.4580     8.2500     2.6030 h1         1 UNL       0.047301
     49 H13          0.0030     9.2500     2.3350 h1         1 UNL       0.047301
     50 H14          2.7340    10.2070     1.9240 hc         1 UNL       0.032844
     51 H15         -0.5670     7.1410     2.8340 h1         1 UNL       0.061083
     52 H16         -0.7700    10.3260     0.4080 hc         1 UNL       0.023616
     53 H17         -0.3470    11.3410    -0.9690 hc         1 UNL       0.023616
     54 H18         -0.5680    12.0580     0.6290 hc         1 UNL       0.023616
     55 H19          3.1960    12.1320     0.4590 hc         1 UNL       0.023616
     56 H20          1.7870    13.0340     1.0320 hc         1 UNL       0.023616
     57 H21          2.0230    12.7670    -0.7010 hc         1 UNL       0.023616
     58 H22         -2.6150     5.3400     2.0370 hn         1 UNL       0.150536
     59 H23          0.0720     2.9450     2.0320 hc         1 UNL       0.023666
     60 H24          0.1070     4.0240     0.6430 hc         1 UNL       0.023666
     61 H25         -1.4220     3.7030     1.4780 hc         1 UNL       0.023666
     62 H26          1.9290     4.3580     3.0870 hc         1 UNL       0.023666
     63 H27          1.6810     6.0800     3.3840 hc         1 UNL       0.023666
     64 H28          1.9040     5.4850     1.7320 hc         1 UNL       0.023666
     65 H29         -0.1200     3.8240     4.3860 hc         1 UNL       0.023666
     66 H30         -1.6980     4.4780     3.9500 hc         1 UNL       0.023666
     67 H31         -0.4770     5.5290     4.6800 hc         1 UNL       0.023666
@<TRIPOS>BOND
     1     1     2 3   
     2     6     8 1   
     3     8    12 1   
     4    12    14 1   
     5    14     9 1   
     6     6     9 1   
     7     9    13 2   
     8     3     5 1   
     9     5     7 1   
    10     7    11 2   
    11    10    15 1   
    12    15    17 1   
    13    17    19 1   
    14    19    16 1   
    15    10    16 1   
    16    16    20 1   
    17    19    20 1   
    18    20    23 1   
    19    20    24 1   
    20    15    18 1   
    21    18    22 2   
    22    25    27 1   
    23    25    28 1   
    24    25    29 1   
    25    21    26 1   
    26    26    30 1   
    27    30    32 2   
    28    30    31 1   
    29    31    33 1   
    30    31    34 1   
    31    31    35 1   
    32     3     4 1   
    33     3     2 1   
    34     6     4 1   
    35    10     7 1   
    36    21    25 1   
    37    21    18 1   
    38     3    36 1   
    39     4    37 1   
    40     4    38 1   
    41     5    39 1   
    42     6    40 1   
    43     8    41 1   
    44     8    42 1   
    45    10    43 1   
    46    12    44 1   
    47    12    45 1   
    48    14    46 1   
    49    16    47 1   
    50    17    48 1   
    51    17    49 1   
    52    19    50 1   
    53    21    51 1   
    54    23    52 1   
    55    23    53 1   
    56    23    54 1   
    57    24    55 1   
    58    24    56 1   
    59    24    57 1   
    60    26    58 1   
    61    27    59 1   
    62    27    60 1   
    63    27    61 1   
    64    28    62 1   
    65    28    63 1   
    66    28    64 1   
    67    29    65 1   
    68    29    66 1   
    69    29    67 1   
@<TRIPOS>SUBSTRUCTURE
     1 UNL         1 TEMP              0 ****  ****    0 ROOT
