@<TRIPOS>MOLECULE
*****
 67 69 0 0 0
SMALL
GASTEIGER

@<TRIPOS>ATOM
      1 N           2.6418    6.5085   -5.5871 N.1     1  UNL1       -0.1946
      2 C           2.4906    6.2450   -4.4905 C.1     1  UNL1        0.0849
      3 C           2.2500    5.9045   -3.0784 C.3     1  UNL1        0.1109
      4 C           1.2585    4.7238   -2.9266 C.3     1  UNL1       -0.0101
      5 N           1.7324    7.0812   -2.3735 N.am    1  UNL1       -0.2983
      6 C           1.7570    3.3924   -3.5467 C.3     1  UNL1        0.0396
      7 C           2.1136    7.4692   -1.1382 C.2     1  UNL1        0.2348
      8 C           0.6765    2.2870   -3.4509 C.3     1  UNL1       -0.0262
      9 C           2.9154    2.8171   -2.7606 C.2     1  UNL1        0.2163
     10 C           1.2166    8.5146   -0.4981 C.3     1  UNL1        0.1058
     11 O           3.0122    6.9206   -0.5296 O.2     1  UNL1       -0.2737
     12 C           1.0915    1.4227   -2.2480 C.3     1  UNL1        0.0123
     13 O           4.0622    3.2122   -2.7736 O.2     1  UNL1       -0.2755
     14 N           2.4875    1.7732   -2.0368 N.am    1  UNL1       -0.3151
     15 N           0.5584    8.0065    0.7175 N.am    1  UNL1       -0.2878
     16 C           2.0230    9.7707   -0.1184 C.3     1  UNL1       -0.0037
     17 C           0.9087    8.8476    1.8721 C.3     1  UNL1        0.0192
     18 C          -0.2044    6.8778    0.7398 C.2     1  UNL1        0.2371
     19 C           1.8072    9.9975    1.3849 C.3     1  UNL1       -0.0142
     20 C           1.3189   11.0295    0.3728 C.3     1  UNL1       -0.0250
     21 C          -0.7636    6.3808    2.0779 C.3     1  UNL1        0.1047
     22 O          -0.5372    6.3416   -0.3007 O.2     1  UNL1       -0.2735
     23 C          -0.1772   11.1862    0.0989 C.3     1  UNL1       -0.0592
     24 C           2.1320   12.3138    0.2866 C.3     1  UNL1       -0.0592
     25 C          -0.0827    5.0604    2.5748 C.3     1  UNL1       -0.0108
     26 N          -2.2281    6.2703    2.0016 N.am    1  UNL1       -0.2962
     27 C          -0.3511    3.8647    1.6219 C.3     1  UNL1       -0.0579
     28 C           1.4498    5.2610    2.7002 C.3     1  UNL1       -0.0579
     29 C          -0.6296    4.7020    3.9820 C.3     1  UNL1       -0.0579
     30 C          -3.0613    7.2917    1.6990 C.2     1  UNL1        0.3179
     31 C          -4.5231    6.8966    1.5418 C.3     1  UNL1        0.4694
     32 O          -2.6723    8.4437    1.6380 O.2     1  UNL1       -0.2660
     33 F          -4.6654    5.8626    0.6906 F       1  UNL1       -0.1620
     34 F          -5.0496    6.5208    2.7221 F       1  UNL1       -0.1620
     35 F          -5.2737    7.9090    1.0691 F       1  UNL1       -0.1620
     36 H           3.2120    5.6272   -2.6395 H       1  UNL1        0.0657
     37 H           0.3087    5.0021   -3.3911 H       1  UNL1        0.0300
     38 H           1.0559    4.5634   -1.8643 H       1  UNL1        0.0300
     39 H           0.9358    7.5375   -2.7902 H       1  UNL1        0.1500
     40 H           2.0391    3.5295   -4.5934 H       1  UNL1        0.0395
     41 H           0.7057    1.6763   -4.3569 H       1  UNL1        0.0288
     42 H          -0.3351    2.6846   -3.3380 H       1  UNL1        0.0288
     43 H           0.4460    8.7876   -1.2250 H       1  UNL1        0.0600
     44 H           0.9846    0.3565   -2.4662 H       1  UNL1        0.0462
     45 H           0.5132    1.6934   -1.3603 H       1  UNL1        0.0462
     46 H           3.1030    1.2127   -1.4666 H       1  UNL1        0.1487
     47 H           3.0696    9.8524   -0.4234 H       1  UNL1        0.0332
     48 H           1.4577    8.2496    2.6031 H       1  UNL1        0.0468
     49 H           0.0033    9.2496    2.3352 H       1  UNL1        0.0468
     50 H           2.7341   10.2075    1.9241 H       1  UNL1        0.0325
     51 H          -0.5665    7.1410    2.8345 H       1  UNL1        0.0600
     52 H          -0.7703   10.3257    0.4083 H       1  UNL1        0.0235
     53 H          -0.3474   11.3412   -0.9688 H       1  UNL1        0.0235
     54 H          -0.5681   12.0576    0.6291 H       1  UNL1        0.0235
     55 H           3.1957   12.1322    0.4590 H       1  UNL1        0.0235
     56 H           1.7872   13.0335    1.0325 H       1  UNL1        0.0235
     57 H           2.0226   12.7670   -0.7014 H       1  UNL1        0.0235
     58 H          -2.6149    5.3400    2.0372 H       1  UNL1        0.1497
     59 H           0.0722    2.9446    2.0324 H       1  UNL1        0.0236
     60 H           0.1066    4.0241    0.6435 H       1  UNL1        0.0236
     61 H          -1.4216    3.7034    1.4775 H       1  UNL1        0.0236
     62 H           1.9289    4.3584    3.0872 H       1  UNL1        0.0236
     63 H           1.6808    6.0805    3.3844 H       1  UNL1        0.0236
     64 H           1.9038    5.4853    1.7321 H       1  UNL1        0.0236
     65 H          -0.1200    3.8235    4.3859 H       1  UNL1        0.0236
     66 H          -1.6984    4.4778    3.9495 H       1  UNL1        0.0236
     67 H          -0.4775    5.5289    4.6803 H       1  UNL1        0.0236
@<TRIPOS>BOND
     1     1     2    3
     2     6     8    1
     3     8    12    1
     4    12    14    1
     5    14     9   am
     6     6     9    1
     7     9    13    2
     8     3     5    1
     9     5     7   am
    10     7    11    2
    11    10    15    1
    12    15    17    1
    13    17    19    1
    14    19    16    1
    15    10    16    1
    16    16    20    1
    17    19    20    1
    18    20    23    1
    19    20    24    1
    20    15    18   am
    21    18    22    2
    22    25    27    1
    23    25    28    1
    24    25    29    1
    25    21    26    1
    26    26    30   am
    27    30    32    2
    28    30    31    1
    29    31    33    1
    30    31    34    1
    31    31    35    1
    32     3     4    1
    33     3     2    1
    34     6     4    1
    35    10     7    1
    36    21    25    1
    37    21    18    1
    38     3    36    1
    39     4    37    1
    40     4    38    1
    41     5    39    1
    42     6    40    1
    43     8    41    1
    44     8    42    1
    45    10    43    1
    46    12    44    1
    47    12    45    1
    48    14    46    1
    49    16    47    1
    50    17    48    1
    51    17    49    1
    52    19    50    1
    53    21    51    1
    54    23    52    1
    55    23    53    1
    56    23    54    1
    57    24    55    1
    58    24    56    1
    59    24    57    1
    60    26    58    1
    61    27    59    1
    62    27    60    1
    63    27    61    1
    64    28    62    1
    65    28    63    1
    66    28    64    1
    67    29    65    1
    68    29    66    1
    69    29    67    1
