REMARK  8 active torsions:
REMARK  status: ('A' for Active; 'I' for Inactive)
REMARK    1  A    between atoms: C_3  and  N_5 
REMARK    2  A    between atoms: C_3  and  C_4 
REMARK    3  A    between atoms: C_6  and  C_4 
REMARK       I    between atoms: N_5  and  C_7 
REMARK    4  A    between atoms: C_10  and  C_7 
REMARK       I    between atoms: N_15  and  C_18 
REMARK    5  A    between atoms: C_21  and  C_18 
REMARK    6  A    between atoms: C_21  and  N_26 
REMARK    7  A    between atoms: C_21  and  C_25 
REMARK       I    between atoms: N_26  and  C_30 
REMARK    8  A    between atoms: C_30  and  C_31 
ROOT
ATOM      1  N   UNL d   1       2.642   6.508  -5.587  0.00  0.00    -0.195 NA
ATOM      2  C   UNL d   1       2.491   6.245  -4.490  0.00  0.00     0.084 C 
ATOM      3  C   UNL d   1       2.250   5.904  -3.078  0.00  0.00     0.192 C 
ENDROOT
BRANCH   3   4
ATOM      4  N   UNL d   1       1.732   7.081  -2.373  0.00  0.00    -0.342 N 
ATOM      5  C   UNL d   1       2.114   7.469  -1.138  0.00  0.00     0.242 C 
ATOM      6  O   UNL d   1       3.012   6.921  -0.530  0.00  0.00    -0.271 OA
ATOM      7  H   UNL d   1       0.936   7.537  -2.790  0.00  0.00     0.163 HD
BRANCH   5   8
ATOM      8  C   UNL d   1       1.217   8.515  -0.498  0.00  0.00     0.184 A 
ATOM      9  N   UNL d   1       0.558   8.007   0.718  0.00  0.00    -0.336 N 
ATOM     10  C   UNL d   1       0.909   8.848   1.872  0.00  0.00     0.132 A 
ATOM     11  C   UNL d   1      -0.204   6.878   0.740  0.00  0.00     0.244 C 
ATOM     12  C   UNL d   1       1.807   9.998   1.385  0.00  0.00     0.019 A 
ATOM     13  C   UNL d   1       2.023   9.771  -0.118  0.00  0.00     0.032 A 
ATOM     14  C   UNL d   1       1.319  11.030   0.373  0.00  0.00    -0.036 A 
ATOM     15  C   UNL d   1      -0.177  11.186   0.099  0.00  0.00     0.016 C 
ATOM     16  C   UNL d   1       2.132  12.314   0.287  0.00  0.00     0.016 C 
ATOM     17  O   UNL d   1      -0.537   6.342  -0.301  0.00  0.00    -0.271 OA
BRANCH  11  18
ATOM     18  C   UNL d   1      -0.764   6.381   2.078  0.00  0.00     0.184 C 
BRANCH  18  19
ATOM     19  N   UNL d   1      -2.228   6.270   2.002  0.00  0.00    -0.340 N 
ATOM     20  C   UNL d   1      -3.061   7.292   1.699  0.00  0.00     0.326 C 
ATOM     21  O   UNL d   1      -2.672   8.444   1.638  0.00  0.00    -0.263 OA
ATOM     22  H   UNL d   1      -2.615   5.340   2.037  0.00  0.00     0.163 HD
BRANCH  20  23
ATOM     23  C   UNL d   1      -4.523   6.897   1.542  0.00  0.00     0.472 C 
ATOM     24  F   UNL d   1      -4.665   5.863   0.691  0.00  0.00    -0.162 F 
ATOM     25  F   UNL d   1      -5.050   6.521   2.722  0.00  0.00    -0.162 F 
ATOM     26  F   UNL d   1      -5.274   7.909   1.069  0.00  0.00    -0.162 F 
ENDBRANCH  20  23
ENDBRANCH  18  19
BRANCH  18  27
ATOM     27  C   UNL d   1      -0.083   5.060   2.575  0.00  0.00    -0.022 C 
ATOM     28  C   UNL d   1      -0.351   3.865   1.622  0.00  0.00     0.017 C 
ATOM     29  C   UNL d   1       1.450   5.261   2.700  0.00  0.00     0.017 C 
ATOM     30  C   UNL d   1      -0.630   4.702   3.982  0.00  0.00     0.017 C 
ENDBRANCH  18  27
ENDBRANCH  11  18
ENDBRANCH   5   8
ENDBRANCH   3   4
BRANCH   3  31
ATOM     31  C   UNL d   1       1.258   4.724  -2.927  0.00  0.00     0.054 C 
BRANCH  31  32
ATOM     32  C   UNL d   1       1.757   3.392  -3.547  0.00  0.00     0.082 C 
ATOM     33  C   UNL d   1       0.676   2.287  -3.451  0.00  0.00     0.034 C 
ATOM     34  C   UNL d   1       1.091   1.423  -2.248  0.00  0.00     0.123 C 
ATOM     35  N   UNL d   1       2.487   1.773  -2.037  0.00  0.00    -0.361 N 
ATOM     36  C   UNL d   1       2.915   2.817  -2.761  0.00  0.00     0.222 C 
ATOM     37  H   UNL d   1       3.103   1.213  -1.467  0.00  0.00     0.162 HD
ATOM     38  O   UNL d   1       4.062   3.212  -2.774  0.00  0.00    -0.273 OA
ENDBRANCH  31  32
ENDBRANCH   3  31
TORSDOF 8
