MODEL 1
REMARK VINA RESULT:    -6.710      0.000      0.000
REMARK INTER + INTRA:         -11.686
REMARK INTER:                  -9.500
REMARK INTRA:                  -2.186
REMARK UNBOUND:                -1.838
REMARK  8 active torsions:
REMARK  status: ('A' for Active; 'I' for Inactive)
REMARK    1  A    between atoms: C_3  and  N_5 
REMARK    2  A    between atoms: C_3  and  C_4 
REMARK    3  A    between atoms: C_6  and  C_4 
REMARK       I    between atoms: N_5  and  C_7 
REMARK    4  A    between atoms: C_10  and  C_7 
REMARK       I    between atoms: N_15  and  C_18 
REMARK    5  A    between atoms: C_21  and  C_18 
REMARK    6  A    between atoms: C_21  and  N_26 
REMARK    7  A    between atoms: C_21  and  C_25 
REMARK       I    between atoms: N_26  and  C_30 
REMARK    8  A    between atoms: C_30  and  C_31 
ROOT
ATOM      1  N   UNL d   1      13.137 -18.743   6.245  0.00  0.00    -0.195 NA
ATOM      2  C   UNL d   1      13.602 -18.245   5.334  0.00  0.00     0.084 C 
ATOM      3  C   UNL d   1      14.242 -17.627   4.160  0.00  0.00     0.192 C 
ENDROOT
BRANCH   3   4
ATOM      4  N   UNL d   1      15.295 -16.709   4.605  0.00  0.00    -0.342 N 
ATOM      5  C   UNL d   1      15.223 -15.363   4.537  0.00  0.00     0.242 C 
ATOM      6  O   UNL d   1      14.217 -14.780   4.185  0.00  0.00    -0.271 OA
ATOM      7  H   UNL d   1      16.182 -17.126   4.840  0.00  0.00     0.163 HD
BRANCH   5   8
ATOM      8  C   UNL d   1      16.545 -14.647   4.753  0.00  0.00     0.184 A 
ATOM      9  N   UNL d   1      16.922 -13.820   3.593  0.00  0.00    -0.336 N 
ATOM     10  C   UNL d   1      17.080 -12.417   4.003  0.00  0.00     0.132 A 
ATOM     11  C   UNL d   1      17.030 -14.312   2.328  0.00  0.00     0.244 C 
ATOM     12  C   UNL d   1      16.844 -12.319   5.519  0.00  0.00     0.019 A 
ATOM     13  C   UNL d   1      16.479 -13.734   5.992  0.00  0.00     0.032 A 
ATOM     14  C   UNL d   1      17.731 -13.048   6.523  0.00  0.00    -0.036 A 
ATOM     15  C   UNL d   1      19.097 -13.583   6.091  0.00  0.00     0.016 C 
ATOM     16  C   UNL d   1      17.652 -12.557   7.962  0.00  0.00     0.016 C 
ATOM     17  O   UNL d   1      17.011 -15.514   2.133  0.00  0.00    -0.271 OA
BRANCH  11  18
ATOM     18  C   UNL d   1      17.331 -13.348   1.175  0.00  0.00     0.184 C 
BRANCH  18  19
ATOM     19  N   UNL d   1      18.636 -13.666   0.578  0.00  0.00    -0.340 N 
ATOM     20  C   UNL d   1      19.769 -12.955   0.783  0.00  0.00     0.326 C 
ATOM     21  O   UNL d   1      19.758 -11.875   1.344  0.00  0.00    -0.263 OA
ATOM     22  H   UNL d   1      18.715 -14.553   0.105  0.00  0.00     0.163 HD
BRANCH  20  23
ATOM     23  C   UNL d   1      21.023 -13.564   0.172  0.00  0.00     0.472 C 
ATOM     24  F   UNL d   1      21.765 -12.634  -0.460  0.00  0.00    -0.162 F 
ATOM     25  F   UNL d   1      21.799 -14.121   1.120  0.00  0.00    -0.162 F 
ATOM     26  F   UNL d   1      20.735 -14.523  -0.728  0.00  0.00    -0.162 F 
ENDBRANCH  20  23
ENDBRANCH  18  19
BRANCH  18  27
ATOM     27  C   UNL d   1      16.181 -13.284   0.112  0.00  0.00    -0.022 C 
ATOM     28  C   UNL d   1      16.468 -14.181  -1.121  0.00  0.00     0.017 C 
ATOM     29  C   UNL d   1      14.838 -13.729   0.748  0.00  0.00     0.017 C 
ATOM     30  C   UNL d   1      16.013 -11.819  -0.371  0.00  0.00     0.017 C 
ENDBRANCH  18  27
ENDBRANCH  11  18
ENDBRANCH   5   8
ENDBRANCH   3   4
BRANCH   3  31
ATOM     31  C   UNL d   1      14.840 -18.686   3.201  0.00  0.00     0.054 C 
BRANCH  31  32
ATOM     32  C   UNL d   1      14.168 -18.727   1.803  0.00  0.00     0.082 C 
ATOM     33  C   UNL d   1      15.094 -19.391   0.753  0.00  0.00     0.034 C 
ATOM     34  C   UNL d   1      15.725 -18.221  -0.022  0.00  0.00     0.123 C 
ATOM     35  N   UNL d   1      14.860 -17.094   0.289  0.00  0.00    -0.361 N 
ATOM     36  C   UNL d   1      13.957 -17.334   1.251  0.00  0.00     0.222 C 
ATOM     37  H   UNL d   1      14.876 -16.238  -0.245  0.00  0.00     0.162 HD
ATOM     38  O   UNL d   1      13.105 -16.543   1.598  0.00  0.00    -0.273 OA
ENDBRANCH  31  32
ENDBRANCH   3  31
TORSDOF 8
ENDMDL
MODEL 2
REMARK VINA RESULT:    -6.458      3.036      5.851
REMARK INTER + INTRA:         -11.317
REMARK INTER:                 -10.163
REMARK INTRA:                  -1.153
REMARK UNBOUND:                -1.838
REMARK  8 active torsions:
REMARK  status: ('A' for Active; 'I' for Inactive)
REMARK    1  A    between atoms: C_3  and  N_5 
REMARK    2  A    between atoms: C_3  and  C_4 
REMARK    3  A    between atoms: C_6  and  C_4 
REMARK       I    between atoms: N_5  and  C_7 
REMARK    4  A    between atoms: C_10  and  C_7 
REMARK       I    between atoms: N_15  and  C_18 
REMARK    5  A    between atoms: C_21  and  C_18 
REMARK    6  A    between atoms: C_21  and  N_26 
REMARK    7  A    between atoms: C_21  and  C_25 
REMARK       I    between atoms: N_26  and  C_30 
REMARK    8  A    between atoms: C_30  and  C_31 
ROOT
ATOM      1  N   UNL d   1      12.288 -21.203   1.203  0.00  0.00    -0.195 NA
ATOM      2  C   UNL d   1      12.909 -20.645   1.977  0.00  0.00     0.084 C 
ATOM      3  C   UNL d   1      13.687 -19.886   2.970  0.00  0.00     0.192 C 
ENDROOT
BRANCH   3   4
ATOM      4  N   UNL d   1      14.560 -18.930   2.281  0.00  0.00    -0.342 N 
ATOM      5  C   UNL d   1      14.137 -17.989   1.411  0.00  0.00     0.242 C 
ATOM      6  O   UNL d   1      12.959 -17.783   1.194  0.00  0.00    -0.271 OA
ATOM      7  H   UNL d   1      15.551 -19.093   2.361  0.00  0.00     0.163 HD
BRANCH   5   8
ATOM      8  C   UNL d   1      15.241 -17.342   0.593  0.00  0.00     0.184 A 
ATOM      9  N   UNL d   1      16.039 -16.397   1.393  0.00  0.00    -0.336 N 
ATOM     10  C   UNL d   1      17.453 -16.800   1.390  0.00  0.00     0.132 A 
ATOM     11  C   UNL d   1      15.496 -15.352   2.077  0.00  0.00     0.244 C 
ATOM     12  C   UNL d   1      17.605 -18.048   0.503  0.00  0.00     0.019 A 
ATOM     13  C   UNL d   1      16.194 -18.407   0.017  0.00  0.00     0.032 A 
ATOM     14  C   UNL d   1      17.275 -18.025  -0.986  0.00  0.00    -0.036 A 
ATOM     15  C   UNL d   1      17.152 -16.690  -1.722  0.00  0.00     0.016 C 
ATOM     16  C   UNL d   1      17.842 -19.172  -1.811  0.00  0.00     0.016 C 
ATOM     17  O   UNL d   1      14.335 -15.036   1.894  0.00  0.00    -0.271 OA
BRANCH  11  18
ATOM     18  C   UNL d   1      16.402 -14.486   2.960  0.00  0.00     0.184 C 
BRANCH  18  19
ATOM     19  N   UNL d   1      16.031 -13.069   2.827  0.00  0.00    -0.340 N 
ATOM     20  C   UNL d   1      16.768 -12.140   2.175  0.00  0.00     0.326 C 
ATOM     21  O   UNL d   1      17.901 -12.369   1.793  0.00  0.00    -0.263 OA
ATOM     22  H   UNL d   1      15.101 -12.815   3.118  0.00  0.00     0.163 HD
BRANCH  20  23
ATOM     23  C   UNL d   1      16.106 -10.775   2.052  0.00  0.00     0.472 C 
ATOM     24  F   UNL d   1      15.272 -10.537   3.082  0.00  0.00    -0.162 F 
ATOM     25  F   UNL d   1      17.026  -9.792   2.046  0.00  0.00    -0.162 F 
ATOM     26  F   UNL d   1      15.386 -10.660   0.921  0.00  0.00    -0.162 F 
ENDBRANCH  20  23
ENDBRANCH  18  19
BRANCH  18  27
ATOM     27  C   UNL d   1      16.442 -14.963   4.452  0.00  0.00    -0.022 C 
ATOM     28  C   UNL d   1      16.123 -13.814   5.446  0.00  0.00     0.017 C 
ATOM     29  C   UNL d   1      15.422 -16.110   4.676  0.00  0.00     0.017 C 
ATOM     30  C   UNL d   1      17.855 -15.516   4.774  0.00  0.00     0.017 C 
ENDBRANCH  18  27
ENDBRANCH  11  18
ENDBRANCH   5   8
ENDBRANCH   3   4
BRANCH   3  31
ATOM     31  C   UNL d   1      12.774 -19.134   3.971  0.00  0.00     0.054 C 
BRANCH  31  32
ATOM     32  C   UNL d   1      12.130 -20.044   5.050  0.00  0.00     0.082 C 
ATOM     33  C   UNL d   1      10.604 -20.189   4.826  0.00  0.00     0.034 C 
ATOM     34  C   UNL d   1       9.957 -19.217   5.827  0.00  0.00     0.123 C 
ATOM     35  N   UNL d   1      11.020 -18.946   6.782  0.00  0.00    -0.361 N 
ATOM     36  C   UNL d   1      12.223 -19.420   6.425  0.00  0.00     0.222 C 
ATOM     37  H   UNL d   1      10.843 -18.523   7.681  0.00  0.00     0.162 HD
ATOM     38  O   UNL d   1      13.214 -19.354   7.122  0.00  0.00    -0.273 OA
ENDBRANCH  31  32
ENDBRANCH   3  31
TORSDOF 8
ENDMDL
MODEL 3
REMARK VINA RESULT:    -6.455      3.732      5.907
REMARK INTER + INTRA:         -11.312
REMARK INTER:                  -9.489
REMARK INTRA:                  -1.823
REMARK UNBOUND:                -1.838
REMARK  8 active torsions:
REMARK  status: ('A' for Active; 'I' for Inactive)
REMARK    1  A    between atoms: C_3  and  N_5 
REMARK    2  A    between atoms: C_3  and  C_4 
REMARK    3  A    between atoms: C_6  and  C_4 
REMARK       I    between atoms: N_5  and  C_7 
REMARK    4  A    between atoms: C_10  and  C_7 
REMARK       I    between atoms: N_15  and  C_18 
REMARK    5  A    between atoms: C_21  and  C_18 
REMARK    6  A    between atoms: C_21  and  N_26 
REMARK    7  A    between atoms: C_21  and  C_25 
REMARK       I    between atoms: N_26  and  C_30 
REMARK    8  A    between atoms: C_30  and  C_31 
ROOT
ATOM      1  N   UNL d   1      13.446 -14.684   3.383  0.00  0.00    -0.195 NA
ATOM      2  C   UNL d   1      14.121 -14.491   2.487  0.00  0.00     0.084 C 
ATOM      3  C   UNL d   1      15.015 -14.282   1.336  0.00  0.00     0.192 C 
ENDROOT
BRANCH   3   4
ATOM      4  N   UNL d   1      16.353 -13.923   1.816  0.00  0.00    -0.342 N 
ATOM      5  C   UNL d   1      16.920 -12.706   1.679  0.00  0.00     0.242 C 
ATOM      6  O   UNL d   1      16.319 -11.753   1.223  0.00  0.00    -0.271 OA
ATOM      7  H   UNL d   1      16.931 -14.683   2.138  0.00  0.00     0.163 HD
BRANCH   5   8
ATOM      8  C   UNL d   1      18.412 -12.667   1.962  0.00  0.00     0.184 A 
ATOM      9  N   UNL d   1      18.706 -12.836   3.396  0.00  0.00    -0.336 N 
ATOM     10  C   UNL d   1      19.570 -14.007   3.601  0.00  0.00     0.132 A 
ATOM     11  C   UNL d   1      18.177 -12.039   4.367  0.00  0.00     0.244 C 
ATOM     12  C   UNL d   1      19.904 -14.616   2.228  0.00  0.00     0.019 A 
ATOM     13  C   UNL d   1      19.147 -13.778   1.188  0.00  0.00     0.032 A 
ATOM     14  C   UNL d   1      20.669 -13.835   1.164  0.00  0.00    -0.036 A 
ATOM     15  C   UNL d   1      21.455 -12.581   1.550  0.00  0.00     0.016 C 
ATOM     16  C   UNL d   1      21.278 -14.662   0.041  0.00  0.00     0.016 C 
ATOM     17  O   UNL d   1      17.586 -11.018   4.068  0.00  0.00    -0.271 OA
BRANCH  11  18
ATOM     18  C   UNL d   1      18.468 -12.360   5.837  0.00  0.00     0.184 C 
BRANCH  18  19
ATOM     19  N   UNL d   1      18.589 -11.116   6.611  0.00  0.00    -0.340 N 
ATOM     20  C   UNL d   1      19.748 -10.635   7.116  0.00  0.00     0.326 C 
ATOM     21  O   UNL d   1      20.771 -11.295   7.122  0.00  0.00    -0.263 OA
ATOM     22  H   UNL d   1      17.778 -10.518   6.638  0.00  0.00     0.163 HD
BRANCH  20  23
ATOM     23  C   UNL d   1      19.641  -9.258   7.757  0.00  0.00     0.472 C 
ATOM     24  F   UNL d   1      20.845  -8.804   8.153  0.00  0.00    -0.162 F 
ATOM     25  F   UNL d   1      19.139  -8.360   6.889  0.00  0.00    -0.162 F 
ATOM     26  F   UNL d   1      18.841  -9.263   8.839  0.00  0.00    -0.162 F 
ENDBRANCH  20  23
ENDBRANCH  18  19
BRANCH  18  27
ATOM     27  C   UNL d   1      17.437 -13.362   6.461  0.00  0.00    -0.022 C 
ATOM     28  C   UNL d   1      18.074 -14.743   6.773  0.00  0.00     0.017 C 
ATOM     29  C   UNL d   1      16.850 -12.780   7.773  0.00  0.00     0.017 C 
ATOM     30  C   UNL d   1      16.264 -13.572   5.469  0.00  0.00     0.017 C 
ENDBRANCH  18  27
ENDBRANCH  11  18
ENDBRANCH   5   8
ENDBRANCH   3   4
BRANCH   3  31
ATOM     31  C   UNL d   1      15.101 -15.537   0.432  0.00  0.00     0.054 C 
BRANCH  31  32
ATOM     32  C   UNL d   1      16.442 -15.674  -0.337  0.00  0.00     0.082 C 
ATOM     33  C   UNL d   1      16.521 -14.670  -1.514  0.00  0.00     0.034 C 
ATOM     34  C   UNL d   1      16.174 -15.492  -2.767  0.00  0.00     0.123 C 
ATOM     35  N   UNL d   1      16.354 -16.870  -2.336  0.00  0.00    -0.361 N 
ATOM     36  C   UNL d   1      16.552 -17.020  -1.019  0.00  0.00     0.222 C 
ATOM     37  H   UNL d   1      16.423 -17.634  -2.991  0.00  0.00     0.162 HD
ATOM     38  O   UNL d   1      16.791 -18.082  -0.483  0.00  0.00    -0.273 OA
ENDBRANCH  31  32
ENDBRANCH   3  31
TORSDOF 8
ENDMDL
MODEL 4
REMARK VINA RESULT:    -6.448      3.667      7.795
REMARK INTER + INTRA:         -11.302
REMARK INTER:                  -9.327
REMARK INTRA:                  -1.976
REMARK UNBOUND:                -1.838
REMARK  8 active torsions:
REMARK  status: ('A' for Active; 'I' for Inactive)
REMARK    1  A    between atoms: C_3  and  N_5 
REMARK    2  A    between atoms: C_3  and  C_4 
REMARK    3  A    between atoms: C_6  and  C_4 
REMARK       I    between atoms: N_5  and  C_7 
REMARK    4  A    between atoms: C_10  and  C_7 
REMARK       I    between atoms: N_15  and  C_18 
REMARK    5  A    between atoms: C_21  and  C_18 
REMARK    6  A    between atoms: C_21  and  N_26 
REMARK    7  A    between atoms: C_21  and  C_25 
REMARK       I    between atoms: N_26  and  C_30 
REMARK    8  A    between atoms: C_30  and  C_31 
ROOT
ATOM      1  N   UNL d   1      20.592 -12.425   0.318  0.00  0.00    -0.195 NA
ATOM      2  C   UNL d   1      19.574 -12.881   0.090  0.00  0.00     0.084 C 
ATOM      3  C   UNL d   1      18.250 -13.474  -0.159  0.00  0.00     0.192 C 
ENDROOT
BRANCH   3   4
ATOM      4  N   UNL d   1      18.281 -14.900   0.181  0.00  0.00    -0.342 N 
ATOM      5  C   UNL d   1      17.711 -15.879  -0.552  0.00  0.00     0.242 C 
ATOM      6  O   UNL d   1      17.196 -15.670  -1.633  0.00  0.00    -0.271 OA
ATOM      7  H   UNL d   1      18.629 -15.133   1.097  0.00  0.00     0.163 HD
BRANCH   5   8
ATOM      8  C   UNL d   1      17.599 -17.218   0.158  0.00  0.00     0.184 A 
ATOM      9  N   UNL d   1      16.255 -17.432   0.723  0.00  0.00    -0.336 N 
ATOM     10  C   UNL d   1      15.660 -18.654   0.162  0.00  0.00     0.132 A 
ATOM     11  C   UNL d   1      15.660 -16.563   1.587  0.00  0.00     0.244 C 
ATOM     12  C   UNL d   1      16.681 -19.306  -0.786  0.00  0.00     0.019 A 
ATOM     13  C   UNL d   1      17.904 -18.378  -0.807  0.00  0.00     0.032 A 
ATOM     14  C   UNL d   1      18.035 -19.807  -0.292  0.00  0.00    -0.036 A 
ATOM     15  C   UNL d   1      18.272 -20.027   1.202  0.00  0.00     0.016 C 
ATOM     16  C   UNL d   1      18.763 -20.774  -1.215  0.00  0.00     0.016 C 
ATOM     17  O   UNL d   1      16.302 -15.658   2.087  0.00  0.00    -0.271 OA
BRANCH  11  18
ATOM     18  C   UNL d   1      14.219 -16.830   2.039  0.00  0.00     0.184 C 
BRANCH  18  19
ATOM     19  N   UNL d   1      14.206 -17.291   3.435  0.00  0.00    -0.340 N 
ATOM     20  C   UNL d   1      13.765 -18.505   3.838  0.00  0.00     0.326 C 
ATOM     21  O   UNL d   1      13.171 -19.257   3.087  0.00  0.00    -0.263 OA
ATOM     22  H   UNL d   1      14.691 -16.718   4.107  0.00  0.00     0.163 HD
BRANCH  20  23
ATOM     23  C   UNL d   1      13.985 -18.804   5.315  0.00  0.00     0.472 C 
ATOM     24  F   UNL d   1      15.144 -18.280   5.756  0.00  0.00    -0.162 F 
ATOM     25  F   UNL d   1      12.997 -18.282   6.064  0.00  0.00    -0.162 F 
ATOM     26  F   UNL d   1      14.025 -20.126   5.564  0.00  0.00    -0.162 F 
ENDBRANCH  20  23
ENDBRANCH  18  19
BRANCH  18  27
ATOM     27  C   UNL d   1      13.265 -15.610   1.797  0.00  0.00    -0.022 C 
ATOM     28  C   UNL d   1      13.534 -14.912   0.437  0.00  0.00     0.017 C 
ATOM     29  C   UNL d   1      11.784 -16.072   1.833  0.00  0.00     0.017 C 
ATOM     30  C   UNL d   1      13.465 -14.573   2.933  0.00  0.00     0.017 C 
ENDBRANCH  18  27
ENDBRANCH  11  18
ENDBRANCH   5   8
ENDBRANCH   3   4
BRANCH   3  31
ATOM     31  C   UNL d   1      17.135 -12.766   0.651  0.00  0.00     0.054 C 
BRANCH  31  32
ATOM     32  C   UNL d   1      17.603 -12.211   2.022  0.00  0.00     0.082 C 
ATOM     33  C   UNL d   1      16.627 -12.615   3.155  0.00  0.00     0.034 C 
ATOM     34  C   UNL d   1      15.755 -11.371   3.396  0.00  0.00     0.123 C 
ATOM     35  N   UNL d   1      16.510 -10.294   2.775  0.00  0.00    -0.361 N 
ATOM     36  C   UNL d   1      17.562 -10.698   2.049  0.00  0.00     0.222 C 
ATOM     37  H   UNL d   1      16.313  -9.322   2.959  0.00  0.00     0.162 HD
ATOM     38  O   UNL d   1      18.350  -9.946   1.515  0.00  0.00    -0.273 OA
ENDBRANCH  31  32
ENDBRANCH   3  31
TORSDOF 8
ENDMDL
MODEL 5
REMARK VINA RESULT:    -6.321      3.530      6.503
REMARK INTER + INTRA:         -11.115
REMARK INTER:                  -9.049
REMARK INTRA:                  -2.066
REMARK UNBOUND:                -1.838
REMARK  8 active torsions:
REMARK  status: ('A' for Active; 'I' for Inactive)
REMARK    1  A    between atoms: C_3  and  N_5 
REMARK    2  A    between atoms: C_3  and  C_4 
REMARK    3  A    between atoms: C_6  and  C_4 
REMARK       I    between atoms: N_5  and  C_7 
REMARK    4  A    between atoms: C_10  and  C_7 
REMARK       I    between atoms: N_15  and  C_18 
REMARK    5  A    between atoms: C_21  and  C_18 
REMARK    6  A    between atoms: C_21  and  N_26 
REMARK    7  A    between atoms: C_21  and  C_25 
REMARK       I    between atoms: N_26  and  C_30 
REMARK    8  A    between atoms: C_30  and  C_31 
ROOT
ATOM      1  N   UNL d   1      15.628 -11.364   0.425  0.00  0.00    -0.195 NA
ATOM      2  C   UNL d   1      15.511 -11.604   1.532  0.00  0.00     0.084 C 
ATOM      3  C   UNL d   1      15.406 -11.912   2.968  0.00  0.00     0.192 C 
ENDROOT
BRANCH   3   4
ATOM      4  N   UNL d   1      15.839 -13.293   3.204  0.00  0.00    -0.342 N 
ATOM      5  C   UNL d   1      15.031 -14.295   3.609  0.00  0.00     0.242 C 
ATOM      6  O   UNL d   1      13.829 -14.160   3.722  0.00  0.00    -0.271 OA
ATOM      7  H   UNL d   1      16.833 -13.457   3.198  0.00  0.00     0.163 HD
BRANCH   5   8
ATOM      8  C   UNL d   1      15.759 -15.540   4.089  0.00  0.00     0.184 A 
ATOM      9  N   UNL d   1      16.484 -16.211   2.996  0.00  0.00    -0.336 N 
ATOM     10  C   UNL d   1      17.916 -16.297   3.317  0.00  0.00     0.132 A 
ATOM     11  C   UNL d   1      15.886 -16.617   1.841  0.00  0.00     0.244 C 
ATOM     12  C   UNL d   1      18.142 -15.695   4.715  0.00  0.00     0.019 A 
ATOM     13  C   UNL d   1      16.773 -15.191   5.194  0.00  0.00     0.032 A 
ATOM     14  C   UNL d   1      17.497 -16.289   5.963  0.00  0.00    -0.036 A 
ATOM     15  C   UNL d   1      16.924 -17.706   5.929  0.00  0.00     0.016 C 
ATOM     16  C   UNL d   1      18.108 -15.868   7.292  0.00  0.00     0.016 C 
ATOM     17  O   UNL d   1      14.673 -16.618   1.745  0.00  0.00    -0.271 OA
BRANCH  11  18
ATOM     18  C   UNL d   1      16.750 -17.217   0.725  0.00  0.00     0.184 C 
BRANCH  18  19
ATOM     19  N   UNL d   1      16.163 -18.481   0.257  0.00  0.00    -0.340 N 
ATOM     20  C   UNL d   1      16.221 -19.652   0.934  0.00  0.00     0.326 C 
ATOM     21  O   UNL d   1      16.928 -19.795   1.914  0.00  0.00    -0.263 OA
ATOM     22  H   UNL d   1      15.557 -18.430  -0.547  0.00  0.00     0.163 HD
BRANCH  20  23
ATOM     23  C   UNL d   1      15.417 -20.786   0.314  0.00  0.00     0.472 C 
ATOM     24  F   UNL d   1      14.102 -20.498   0.284  0.00  0.00    -0.162 F 
ATOM     25  F   UNL d   1      15.807 -21.017  -0.954  0.00  0.00    -0.162 F 
ATOM     26  F   UNL d   1      15.557 -21.939   0.995  0.00  0.00    -0.162 F 
ENDBRANCH  20  23
ENDBRANCH  18  19
BRANCH  18  27
ATOM     27  C   UNL d   1      17.026 -16.211  -0.444  0.00  0.00    -0.022 C 
ATOM     28  C   UNL d   1      16.748 -16.836  -1.837  0.00  0.00     0.017 C 
ATOM     29  C   UNL d   1      16.144 -14.945  -0.283  0.00  0.00     0.017 C 
ATOM     30  C   UNL d   1      18.511 -15.762  -0.391  0.00  0.00     0.017 C 
ENDBRANCH  18  27
ENDBRANCH  11  18
ENDBRANCH   5   8
ENDBRANCH   3   4
BRANCH   3  31
ATOM     31  C   UNL d   1      16.249 -10.943   3.833  0.00  0.00     0.054 C 
BRANCH  31  32
ATOM     32  C   UNL d   1      17.692 -11.439   4.118  0.00  0.00     0.082 C 
ATOM     33  C   UNL d   1      17.985 -11.471   5.638  0.00  0.00     0.034 C 
ATOM     34  C   UNL d   1      18.794 -10.193   5.918  0.00  0.00     0.123 C 
ATOM     35  N   UNL d   1      19.263  -9.787   4.602  0.00  0.00    -0.361 N 
ATOM     36  C   UNL d   1      18.724 -10.471   3.583  0.00  0.00     0.222 C 
ATOM     37  H   UNL d   1      20.004  -9.113   4.478  0.00  0.00     0.162 HD
ATOM     38  O   UNL d   1      19.041 -10.325   2.421  0.00  0.00    -0.273 OA
ENDBRANCH  31  32
ENDBRANCH   3  31
TORSDOF 8
ENDMDL
MODEL 6
REMARK VINA RESULT:    -6.234      1.622      2.083
REMARK INTER + INTRA:         -10.987
REMARK INTER:                  -8.525
REMARK INTRA:                  -2.462
REMARK UNBOUND:                -1.838
REMARK  8 active torsions:
REMARK  status: ('A' for Active; 'I' for Inactive)
REMARK    1  A    between atoms: C_3  and  N_5 
REMARK    2  A    between atoms: C_3  and  C_4 
REMARK    3  A    between atoms: C_6  and  C_4 
REMARK       I    between atoms: N_5  and  C_7 
REMARK    4  A    between atoms: C_10  and  C_7 
REMARK       I    between atoms: N_15  and  C_18 
REMARK    5  A    between atoms: C_21  and  C_18 
REMARK    6  A    between atoms: C_21  and  N_26 
REMARK    7  A    between atoms: C_21  and  C_25 
REMARK       I    between atoms: N_26  and  C_30 
REMARK    8  A    between atoms: C_30  and  C_31 
ROOT
ATOM      1  N   UNL d   1      14.299 -19.655   4.022  0.00  0.00    -0.195 NA
ATOM      2  C   UNL d   1      14.380 -18.542   3.797  0.00  0.00     0.084 C 
ATOM      3  C   UNL d   1      14.522 -17.111   3.479  0.00  0.00     0.192 C 
ENDROOT
BRANCH   3   4
ATOM      4  N   UNL d   1      15.663 -16.558   4.215  0.00  0.00    -0.342 N 
ATOM      5  C   UNL d   1      15.681 -15.348   4.814  0.00  0.00     0.242 C 
ATOM      6  O   UNL d   1      14.697 -14.638   4.880  0.00  0.00    -0.271 OA
ATOM      7  H   UNL d   1      16.532 -17.063   4.138  0.00  0.00     0.163 HD
BRANCH   5   8
ATOM      8  C   UNL d   1      17.061 -14.869   5.229  0.00  0.00     0.184 A 
ATOM      9  N   UNL d   1      17.516 -13.726   4.417  0.00  0.00    -0.336 N 
ATOM     10  C   UNL d   1      17.798 -12.571   5.282  0.00  0.00     0.132 A 
ATOM     11  C   UNL d   1      17.585 -13.756   3.057  0.00  0.00     0.244 C 
ATOM     12  C   UNL d   1      17.564 -12.986   6.745  0.00  0.00     0.019 A 
ATOM     13  C   UNL d   1      17.071 -14.440   6.708  0.00  0.00     0.032 A 
ATOM     14  C   UNL d   1      18.378 -14.092   7.410  0.00  0.00    -0.036 A 
ATOM     15  C   UNL d   1      19.692 -14.558   6.784  0.00  0.00     0.016 C 
ATOM     16  C   UNL d   1      18.337 -14.125   8.932  0.00  0.00     0.016 C 
ATOM     17  O   UNL d   1      17.459 -14.809   2.459  0.00  0.00    -0.271 OA
BRANCH  11  18
ATOM     18  C   UNL d   1      17.977 -12.481   2.301  0.00  0.00     0.184 C 
BRANCH  18  19
ATOM     19  N   UNL d   1      18.996 -12.788   1.287  0.00  0.00    -0.340 N 
ATOM     20  C   UNL d   1      20.323 -12.573   1.441  0.00  0.00     0.326 C 
ATOM     21  O   UNL d   1      20.767 -11.933   2.377  0.00  0.00    -0.263 OA
ATOM     22  H   UNL d   1      18.695 -13.326   0.489  0.00  0.00     0.163 HD
BRANCH  20  23
ATOM     23  C   UNL d   1      21.190 -13.105   0.309  0.00  0.00     0.472 C 
ATOM     24  F   UNL d   1      21.215 -12.254  -0.734  0.00  0.00    -0.162 F 
ATOM     25  F   UNL d   1      22.462 -13.278   0.716  0.00  0.00    -0.162 F 
ATOM     26  F   UNL d   1      20.750 -14.290  -0.154  0.00  0.00    -0.162 F 
ENDBRANCH  20  23
ENDBRANCH  18  19
BRANCH  18  27
ATOM     27  C   UNL d   1      16.745 -11.717   1.707  0.00  0.00    -0.022 C 
ATOM     28  C   UNL d   1      16.505 -12.059   0.212  0.00  0.00     0.017 C 
ATOM     29  C   UNL d   1      15.462 -12.064   2.507  0.00  0.00     0.017 C 
ATOM     30  C   UNL d   1      16.982 -10.189   1.832  0.00  0.00     0.017 C 
ENDBRANCH  18  27
ENDBRANCH  11  18
ENDBRANCH   5   8
ENDBRANCH   3   4
BRANCH   3  31
ATOM     31  C   UNL d   1      14.710 -16.870   1.961  0.00  0.00     0.054 C 
BRANCH  31  32
ATOM     32  C   UNL d   1      14.239 -15.473   1.477  0.00  0.00     0.082 C 
ATOM     33  C   UNL d   1      12.794 -15.173   1.946  0.00  0.00     0.034 C 
ATOM     34  C   UNL d   1      11.908 -15.458   0.721  0.00  0.00     0.123 C 
ATOM     35  N   UNL d   1      12.845 -15.456  -0.391  0.00  0.00    -0.361 N 
ATOM     36  C   UNL d   1      14.136 -15.417  -0.031  0.00  0.00     0.222 C 
ATOM     37  H   UNL d   1      12.543 -15.389  -1.351  0.00  0.00     0.162 HD
ATOM     38  O   UNL d   1      15.059 -15.338  -0.815  0.00  0.00    -0.273 OA
ENDBRANCH  31  32
ENDBRANCH   3  31
TORSDOF 8
ENDMDL
MODEL 7
REMARK VINA RESULT:    -6.208      3.568      6.957
REMARK INTER + INTRA:         -10.949
REMARK INTER:                  -9.463
REMARK INTRA:                  -1.486
REMARK UNBOUND:                -1.838
REMARK  8 active torsions:
REMARK  status: ('A' for Active; 'I' for Inactive)
REMARK    1  A    between atoms: C_3  and  N_5 
REMARK    2  A    between atoms: C_3  and  C_4 
REMARK    3  A    between atoms: C_6  and  C_4 
REMARK       I    between atoms: N_5  and  C_7 
REMARK    4  A    between atoms: C_10  and  C_7 
REMARK       I    between atoms: N_15  and  C_18 
REMARK    5  A    between atoms: C_21  and  C_18 
REMARK    6  A    between atoms: C_21  and  N_26 
REMARK    7  A    between atoms: C_21  and  C_25 
REMARK       I    between atoms: N_26  and  C_30 
REMARK    8  A    between atoms: C_30  and  C_31 
ROOT
ATOM      1  N   UNL d   1      15.151 -12.868   3.201  0.00  0.00    -0.195 NA
ATOM      2  C   UNL d   1      16.087 -12.826   3.847  0.00  0.00     0.084 C 
ATOM      3  C   UNL d   1      17.315 -12.737   4.655  0.00  0.00     0.192 C 
ENDROOT
BRANCH   3   4
ATOM      4  N   UNL d   1      18.433 -13.328   3.911  0.00  0.00    -0.342 N 
ATOM      5  C   UNL d   1      18.790 -12.985   2.656  0.00  0.00     0.242 C 
ATOM      6  O   UNL d   1      18.267 -12.067   2.056  0.00  0.00    -0.271 OA
ATOM      7  H   UNL d   1      18.862 -14.142   4.322  0.00  0.00     0.163 HD
BRANCH   5   8
ATOM      8  C   UNL d   1      19.759 -13.947   1.989  0.00  0.00     0.184 A 
ATOM      9  N   UNL d   1      19.140 -14.656   0.855  0.00  0.00    -0.336 N 
ATOM     10  C   UNL d   1      19.896 -14.394  -0.379  0.00  0.00     0.132 A 
ATOM     11  C   UNL d   1      17.993 -15.384   0.964  0.00  0.00     0.244 C 
ATOM     12  C   UNL d   1      21.103 -13.505  -0.034  0.00  0.00     0.019 A 
ATOM     13  C   UNL d   1      21.001 -13.201   1.468  0.00  0.00     0.032 A 
ATOM     14  C   UNL d   1      22.199 -13.968   0.921  0.00  0.00    -0.036 A 
ATOM     15  C   UNL d   1      22.338 -15.451   1.267  0.00  0.00     0.016 C 
ATOM     16  C   UNL d   1      23.506 -13.190   0.861  0.00  0.00     0.016 C 
ATOM     17  O   UNL d   1      17.533 -15.643   2.060  0.00  0.00    -0.271 OA
BRANCH  11  18
ATOM     18  C   UNL d   1      17.378 -16.001  -0.298  0.00  0.00     0.184 C 
BRANCH  18  19
ATOM     19  N   UNL d   1      17.092 -17.425  -0.075  0.00  0.00    -0.340 N 
ATOM     20  C   UNL d   1      17.307 -18.403  -0.984  0.00  0.00     0.326 C 
ATOM     21  O   UNL d   1      17.593 -18.156  -2.141  0.00  0.00    -0.263 OA
ATOM     22  H   UNL d   1      16.858 -17.699   0.867  0.00  0.00     0.163 HD
BRANCH  20  23
ATOM     23  C   UNL d   1      17.067 -19.816  -0.469  0.00  0.00     0.472 C 
ATOM     24  F   UNL d   1      15.790 -20.199  -0.660  0.00  0.00    -0.162 F 
ATOM     25  F   UNL d   1      17.852 -20.702  -1.109  0.00  0.00    -0.162 F 
ATOM     26  F   UNL d   1      17.324 -19.927   0.847  0.00  0.00    -0.162 F 
ENDBRANCH  20  23
ENDBRANCH  18  19
BRANCH  18  27
ATOM     27  C   UNL d   1      16.131 -15.209  -0.822  0.00  0.00    -0.022 C 
ATOM     28  C   UNL d   1      14.796 -15.800  -0.297  0.00  0.00     0.017 C 
ATOM     29  C   UNL d   1      16.219 -13.722  -0.390  0.00  0.00     0.017 C 
ATOM     30  C   UNL d   1      16.115 -15.252  -2.373  0.00  0.00     0.017 C 
ENDBRANCH  18  27
ENDBRANCH  11  18
ENDBRANCH   5   8
ENDBRANCH   3   4
BRANCH   3  31
ATOM     31  C   UNL d   1      17.655 -11.275   5.036  0.00  0.00     0.054 C 
BRANCH  31  32
ATOM     32  C   UNL d   1      19.104 -11.074   5.551  0.00  0.00     0.082 C 
ATOM     33  C   UNL d   1      19.119 -10.655   7.042  0.00  0.00     0.034 C 
ATOM     34  C   UNL d   1      19.334  -9.132   7.030  0.00  0.00     0.123 C 
ATOM     35  N   UNL d   1      19.841  -8.866   5.692  0.00  0.00    -0.361 N 
ATOM     36  C   UNL d   1      19.781  -9.913   4.856  0.00  0.00     0.222 C 
ATOM     37  H   UNL d   1      20.290  -7.996   5.449  0.00  0.00     0.162 HD
ATOM     38  O   UNL d   1      20.220  -9.906   3.725  0.00  0.00    -0.273 OA
ENDBRANCH  31  32
ENDBRANCH   3  31
TORSDOF 8
ENDMDL
MODEL 8
REMARK VINA RESULT:    -6.196      4.154      7.684
REMARK INTER + INTRA:         -10.932
REMARK INTER:                  -8.989
REMARK INTRA:                  -1.943
REMARK UNBOUND:                -1.838
REMARK  8 active torsions:
REMARK  status: ('A' for Active; 'I' for Inactive)
REMARK    1  A    between atoms: C_3  and  N_5 
REMARK    2  A    between atoms: C_3  and  C_4 
REMARK    3  A    between atoms: C_6  and  C_4 
REMARK       I    between atoms: N_5  and  C_7 
REMARK    4  A    between atoms: C_10  and  C_7 
REMARK       I    between atoms: N_15  and  C_18 
REMARK    5  A    between atoms: C_21  and  C_18 
REMARK    6  A    between atoms: C_21  and  N_26 
REMARK    7  A    between atoms: C_21  and  C_25 
REMARK       I    between atoms: N_26  and  C_30 
REMARK    8  A    between atoms: C_30  and  C_31 
ROOT
ATOM      1  N   UNL d   1      19.485 -14.397   5.428  0.00  0.00    -0.195 NA
ATOM      2  C   UNL d   1      19.198 -14.438   4.327  0.00  0.00     0.084 C 
ATOM      3  C   UNL d   1      18.782 -14.497   2.916  0.00  0.00     0.192 C 
ENDROOT
BRANCH   3   4
ATOM      4  N   UNL d   1      18.514 -15.890   2.544  0.00  0.00    -0.342 N 
ATOM      5  C   UNL d   1      18.418 -16.344   1.277  0.00  0.00     0.242 C 
ATOM      6  O   UNL d   1      18.648 -15.642   0.313  0.00  0.00    -0.271 OA
ATOM      7  H   UNL d   1      18.243 -16.508   3.293  0.00  0.00     0.163 HD
BRANCH   5   8
ATOM      8  C   UNL d   1      17.824 -17.737   1.147  0.00  0.00     0.184 A 
ATOM      9  N   UNL d   1      16.380 -17.695   0.856  0.00  0.00    -0.336 N 
ATOM     10  C   UNL d   1      16.099 -18.394  -0.407  0.00  0.00     0.132 A 
ATOM     11  C   UNL d   1      15.478 -17.036   1.636  0.00  0.00     0.244 C 
ATOM     12  C   UNL d   1      17.417 -18.967  -0.953  0.00  0.00     0.019 A 
ATOM     13  C   UNL d   1      18.518 -18.527   0.023  0.00  0.00     0.032 A 
ATOM     14  C   UNL d   1      18.225 -20.008  -0.184  0.00  0.00    -0.036 A 
ATOM     15  C   UNL d   1      17.575 -20.792   0.956  0.00  0.00     0.016 C 
ATOM     16  C   UNL d   1      19.261 -20.777  -0.992  0.00  0.00     0.016 C 
ATOM     17  O   UNL d   1      15.806 -16.611   2.728  0.00  0.00    -0.271 OA
BRANCH  11  18
ATOM     18  C   UNL d   1      14.012 -16.971   1.190  0.00  0.00     0.184 C 
BRANCH  18  19
ATOM     19  N   UNL d   1      13.177 -17.787   2.083  0.00  0.00    -0.340 N 
ATOM     20  C   UNL d   1      12.857 -19.083   1.864  0.00  0.00     0.326 C 
ATOM     21  O   UNL d   1      13.092 -19.634   0.804  0.00  0.00    -0.263 OA
ATOM     22  H   UNL d   1      12.954 -17.392   2.983  0.00  0.00     0.163 HD
BRANCH  20  23
ATOM     23  C   UNL d   1      12.100 -19.754   3.002  0.00  0.00     0.472 C 
ATOM     24  F   UNL d   1      12.938 -20.384   3.846  0.00  0.00    -0.162 F 
ATOM     25  F   UNL d   1      11.411 -18.849   3.721  0.00  0.00    -0.162 F 
ATOM     26  F   UNL d   1      11.220 -20.669   2.556  0.00  0.00    -0.162 F 
ENDBRANCH  20  23
ENDBRANCH  18  19
BRANCH  18  27
ATOM     27  C   UNL d   1      13.481 -15.504   1.039  0.00  0.00    -0.022 C 
ATOM     28  C   UNL d   1      14.585 -14.525   0.559  0.00  0.00     0.017 C 
ATOM     29  C   UNL d   1      12.305 -15.461   0.029  0.00  0.00     0.017 C 
ATOM     30  C   UNL d   1      12.947 -15.012   2.410  0.00  0.00     0.017 C 
ENDBRANCH  18  27
ENDBRANCH  11  18
ENDBRANCH   5   8
ENDBRANCH   3   4
BRANCH   3  31
ATOM     31  C   UNL d   1      17.527 -13.631   2.644  0.00  0.00     0.054 C 
BRANCH  31  32
ATOM     32  C   UNL d   1      17.639 -12.172   3.159  0.00  0.00     0.082 C 
ATOM     33  C   UNL d   1      16.356 -11.742   3.913  0.00  0.00     0.034 C 
ATOM     34  C   UNL d   1      15.557 -10.904   2.901  0.00  0.00     0.123 C 
ATOM     35  N   UNL d   1      16.541 -10.554   1.889  0.00  0.00    -0.361 N 
ATOM     36  C   UNL d   1      17.717 -11.187   2.013  0.00  0.00     0.222 C 
ATOM     37  H   UNL d   1      16.382  -9.823   1.212  0.00  0.00     0.162 HD
ATOM     38  O   UNL d   1      18.682 -10.975   1.309  0.00  0.00    -0.273 OA
ENDBRANCH  31  32
ENDBRANCH   3  31
TORSDOF 8
ENDMDL
MODEL 9
REMARK VINA RESULT:    -6.191      2.772      4.994
REMARK INTER + INTRA:         -10.924
REMARK INTER:                  -9.086
REMARK INTRA:                  -1.838
REMARK UNBOUND:                -1.838
REMARK  8 active torsions:
REMARK  status: ('A' for Active; 'I' for Inactive)
REMARK    1  A    between atoms: C_3  and  N_5 
REMARK    2  A    between atoms: C_3  and  C_4 
REMARK    3  A    between atoms: C_6  and  C_4 
REMARK       I    between atoms: N_5  and  C_7 
REMARK    4  A    between atoms: C_10  and  C_7 
REMARK       I    between atoms: N_15  and  C_18 
REMARK    5  A    between atoms: C_21  and  C_18 
REMARK    6  A    between atoms: C_21  and  N_26 
REMARK    7  A    between atoms: C_21  and  C_25 
REMARK       I    between atoms: N_26  and  C_30 
REMARK    8  A    between atoms: C_30  and  C_31 
ROOT
ATOM      1  N   UNL d   1      14.621 -18.361   6.012  0.00  0.00    -0.195 NA
ATOM      2  C   UNL d   1      14.129 -18.065   5.029  0.00  0.00     0.084 C 
ATOM      3  C   UNL d   1      13.523 -17.711   3.735  0.00  0.00     0.192 C 
ENDROOT
BRANCH   3   4
ATOM      4  N   UNL d   1      14.410 -16.790   3.016  0.00  0.00    -0.342 N 
ATOM      5  C   UNL d   1      14.018 -15.632   2.445  0.00  0.00     0.242 C 
ATOM      6  O   UNL d   1      12.891 -15.193   2.564  0.00  0.00    -0.271 OA
ATOM      7  H   UNL d   1      15.339 -17.127   2.820  0.00  0.00     0.163 HD
BRANCH   5   8
ATOM      8  C   UNL d   1      15.034 -15.020   1.495  0.00  0.00     0.184 A 
ATOM      9  N   UNL d   1      16.285 -14.659   2.184  0.00  0.00    -0.336 N 
ATOM     10  C   UNL d   1      17.421 -15.364   1.572  0.00  0.00     0.132 A 
ATOM     11  C   UNL d   1      16.331 -13.838   3.271  0.00  0.00     0.244 C 
ATOM     12  C   UNL d   1      16.900 -16.196   0.388  0.00  0.00     0.019 A 
ATOM     13  C   UNL d   1      15.378 -15.997   0.356  0.00  0.00     0.032 A 
ATOM     14  C   UNL d   1      16.235 -15.549  -0.823  0.00  0.00    -0.036 A 
ATOM     15  C   UNL d   1      16.402 -14.051  -1.079  0.00  0.00     0.016 C 
ATOM     16  C   UNL d   1      16.139 -16.415  -2.071  0.00  0.00     0.016 C 
ATOM     17  O   UNL d   1      15.347 -13.205   3.603  0.00  0.00    -0.271 OA
BRANCH  11  18
ATOM     18  C   UNL d   1      17.674 -13.605   3.974  0.00  0.00     0.184 C 
BRANCH  18  19
ATOM     19  N   UNL d   1      17.967 -12.166   4.036  0.00  0.00    -0.340 N 
ATOM     20  C   UNL d   1      19.011 -11.568   3.418  0.00  0.00     0.326 C 
ATOM     21  O   UNL d   1      19.906 -12.209   2.898  0.00  0.00    -0.263 OA
ATOM     22  H   UNL d   1      17.261 -11.576   4.446  0.00  0.00     0.163 HD
BRANCH  20  23
ATOM     23  C   UNL d   1      19.023 -10.048   3.513  0.00  0.00     0.472 C 
ATOM     24  F   UNL d   1      18.355  -9.618   4.600  0.00  0.00    -0.162 F 
ATOM     25  F   UNL d   1      20.281  -9.580   3.603  0.00  0.00    -0.162 F 
ATOM     26  F   UNL d   1      18.453  -9.468   2.440  0.00  0.00    -0.162 F 
ENDBRANCH  20  23
ENDBRANCH  18  19
BRANCH  18  27
ATOM     27  C   UNL d   1      17.760 -14.300   5.376  0.00  0.00    -0.022 C 
ATOM     28  C   UNL d   1      17.204 -13.403   6.513  0.00  0.00     0.017 C 
ATOM     29  C   UNL d   1      16.969 -15.634   5.364  0.00  0.00     0.017 C 
ATOM     30  C   UNL d   1      19.243 -14.632   5.690  0.00  0.00     0.017 C 
ENDBRANCH  18  27
ENDBRANCH  11  18
ENDBRANCH   5   8
ENDBRANCH   3   4
BRANCH   3  31
ATOM     31  C   UNL d   1      13.245 -18.960   2.862  0.00  0.00     0.054 C 
BRANCH  31  32
ATOM     32  C   UNL d   1      12.496 -20.099   3.603  0.00  0.00     0.082 C 
ATOM     33  C   UNL d   1      12.666 -21.453   2.872  0.00  0.00     0.034 C 
ATOM     34  C   UNL d   1      11.361 -21.648   2.081  0.00  0.00     0.123 C 
ATOM     35  N   UNL d   1      10.435 -20.718   2.708  0.00  0.00    -0.361 N 
ATOM     36  C   UNL d   1      11.000 -19.878   3.587  0.00  0.00     0.222 C 
ATOM     37  H   UNL d   1       9.438 -20.771   2.564  0.00  0.00     0.162 HD
ATOM     38  O   UNL d   1      10.381 -19.080   4.260  0.00  0.00    -0.273 OA
ENDBRANCH  31  32
ENDBRANCH   3  31
TORSDOF 8
ENDMDL
