REMARK  8 active torsions:
REMARK  status: ('A' for Active; 'I' for Inactive)
REMARK    1  A    between atoms: C_3  and  N_5 
REMARK    2  A    between atoms: C_3  and  C_4 
REMARK    3  A    between atoms: C_6  and  C_4 
REMARK       I    between atoms: N_5  and  C_7 
REMARK    4  A    between atoms: C_10  and  C_7 
REMARK       I    between atoms: N_15  and  C_18 
REMARK    5  A    between atoms: C_21  and  C_18 
REMARK    6  A    between atoms: C_21  and  N_26 
REMARK    7  A    between atoms: C_21  and  C_25 
REMARK       I    between atoms: N_26  and  C_30 
REMARK    8  A    between atoms: C_30  and  C_31 
ROOT
ATOM      1  N   UNL d   1      10.074   1.087  -5.922  0.00  0.00    -0.195 NA
ATOM      2  C   UNL d   1       9.938   0.117  -5.344  0.00  0.00     0.084 C 
ATOM      3  C   UNL d   1       9.742  -1.114  -4.562  0.00  0.00     0.192 C 
ENDROOT
BRANCH   3   4
ATOM      4  N   UNL d   1       8.367  -1.608  -4.715  0.00  0.00    -0.342 N 
ATOM      5  C   UNL d   1       7.442  -1.621  -3.728  0.00  0.00     0.242 C 
ATOM      6  O   UNL d   1       7.712  -1.300  -2.587  0.00  0.00    -0.271 OA
ATOM      7  H   UNL d   1       8.082  -1.901  -5.638  0.00  0.00     0.163 HD
BRANCH   5   8
ATOM      8  C   UNL d   1       6.041  -2.084  -4.101  0.00  0.00     0.184 A 
ATOM      9  N   UNL d   1       5.620  -1.885  -5.505  0.00  0.00    -0.336 N 
ATOM     10  C   UNL d   1       5.042  -3.130  -6.034  0.00  0.00     0.132 A 
ATOM     11  C   UNL d   1       5.675  -0.683  -6.149  0.00  0.00     0.244 C 
ATOM     12  C   UNL d   1       5.228  -4.240  -4.986  0.00  0.00     0.019 A 
ATOM     13  C   UNL d   1       5.877  -3.578  -3.761  0.00  0.00     0.032 A 
ATOM     14  C   UNL d   1       4.498  -4.214  -3.648  0.00  0.00    -0.036 A 
ATOM     15  C   UNL d   1       3.279  -3.310  -3.468  0.00  0.00     0.016 C 
ATOM     16  C   UNL d   1       4.444  -5.536  -2.894  0.00  0.00     0.016 C 
ATOM     17  O   UNL d   1       6.103   0.298  -5.569  0.00  0.00    -0.271 OA
BRANCH  11  18
ATOM     18  C   UNL d   1       4.977  -0.517  -7.505  0.00  0.00     0.184 C 
BRANCH  18  19
ATOM     19  N   UNL d   1       4.138   0.690  -7.429  0.00  0.00    -0.340 N 
ATOM     20  C   UNL d   1       2.890   0.820  -7.933  0.00  0.00     0.326 C 
ATOM     21  O   UNL d   1       2.322  -0.107  -8.481  0.00  0.00    -0.263 OA
ATOM     22  H   UNL d   1       4.548   1.486  -6.963  0.00  0.00     0.163 HD
BRANCH  20  23
ATOM     23  C   UNL d   1       2.247   2.194  -7.782  0.00  0.00     0.472 C 
ATOM     24  F   UNL d   1       3.032   3.079  -7.135  0.00  0.00    -0.162 F 
ATOM     25  F   UNL d   1       1.965   2.725  -8.986  0.00  0.00    -0.162 F 
ATOM     26  F   UNL d   1       1.093   2.113  -7.095  0.00  0.00    -0.162 F 
ENDBRANCH  20  23
ENDBRANCH  18  19
BRANCH  18  27
ATOM     27  C   UNL d   1       5.972  -0.495  -8.722  0.00  0.00    -0.022 C 
ATOM     28  C   UNL d   1       7.102   0.549  -8.528  0.00  0.00     0.017 C 
ATOM     29  C   UNL d   1       6.611  -1.892  -8.900  0.00  0.00     0.017 C 
ATOM     30  C   UNL d   1       5.225  -0.168 -10.043  0.00  0.00     0.017 C 
ENDBRANCH  18  27
ENDBRANCH  11  18
ENDBRANCH   5   8
ENDBRANCH   3   4
BRANCH   3  31
ATOM     31  C   UNL d   1      10.822  -2.212  -4.788  0.00  0.00     0.054 C 
BRANCH  31  32
ATOM     32  C   UNL d   1      11.095  -2.695  -6.244  0.00  0.00     0.082 A 
ATOM     33  C   UNL d   1      11.927  -1.709  -7.108  0.00  0.00     0.034 A 
ATOM     34  C   UNL d   1      11.023  -1.332  -8.297  0.00  0.00     0.123 A 
ATOM     35  N   UNL d   1       9.862  -2.196  -8.156  0.00  0.00    -0.361 N 
ATOM     36  C   UNL d   1       9.847  -2.959  -7.055  0.00  0.00     0.222 A 
ATOM     37  H   UNL d   1       9.125  -2.216  -8.845  0.00  0.00     0.162 HD
ATOM     38  O   UNL d   1       8.968  -3.752  -6.787  0.00  0.00    -0.273 OA
ENDBRANCH  31  32
ENDBRANCH   3  31
TORSDOF 8
