@<TRIPOS>MOLECULE
*****
 67 69 0 0 0
SMALL
GASTEIGER

@<TRIPOS>ATOM
      1 N          10.0737    1.0873   -5.9224 N.1     1  UNL1       -0.1946
      2 C           9.9375    0.1165   -5.3444 C.1     1  UNL1        0.0849
      3 C           9.7417   -1.1140   -4.5619 C.3     1  UNL1        0.1109
      4 C          10.8221   -2.2115   -4.7876 C.3     1  UNL1       -0.0101
      5 N           8.3666   -1.6084   -4.7149 N.am    1  UNL1       -0.2983
      6 C          11.0951   -2.6947   -6.2440 C.3     1  UNL1        0.0396
      7 C           7.4421   -1.6207   -3.7282 C.2     1  UNL1        0.2348
      8 C          11.9267   -1.7086   -7.1079 C.3     1  UNL1       -0.0262
      9 C           9.8472   -2.9587   -7.0547 C.2     1  UNL1        0.2163
     10 C           6.0414   -2.0843   -4.1006 C.3     1  UNL1        0.1058
     11 O           7.7117   -1.2996   -2.5874 O.2     1  UNL1       -0.2737
     12 C          11.0227   -1.3323   -8.2966 C.3     1  UNL1        0.0123
     13 O           8.9684   -3.7521   -6.7865 O.2     1  UNL1       -0.2755
     14 N           9.8620   -2.1965   -8.1560 N.am    1  UNL1       -0.3151
     15 N           5.6204   -1.8848   -5.5053 N.am    1  UNL1       -0.2878
     16 C           5.8773   -3.5777   -3.7610 C.3     1  UNL1       -0.0037
     17 C           5.0417   -3.1304   -6.0341 C.3     1  UNL1        0.0192
     18 C           5.6751   -0.6826   -6.1490 C.2     1  UNL1        0.2371
     19 C           5.2277   -4.2399   -4.9857 C.3     1  UNL1       -0.0142
     20 C           4.4980   -4.2141   -3.6478 C.3     1  UNL1       -0.0250
     21 C           4.9772   -0.5171   -7.5054 C.3     1  UNL1        0.1047
     22 O           6.1027    0.2981   -5.5687 O.2     1  UNL1       -0.2735
     23 C           3.2788   -3.3103   -3.4679 C.3     1  UNL1       -0.0592
     24 C           4.4443   -5.5356   -2.8938 C.3     1  UNL1       -0.0592
     25 C           5.9716   -0.4955   -8.7219 C.3     1  UNL1       -0.0108
     26 N           4.1376    0.6900   -7.4289 N.am    1  UNL1       -0.2962
     27 C           7.1017    0.5495   -8.5282 C.3     1  UNL1       -0.0579
     28 C           6.6108   -1.8919   -8.8996 C.3     1  UNL1       -0.0579
     29 C           5.2247   -0.1681  -10.0429 C.3     1  UNL1       -0.0579
     30 C           2.8896    0.8196   -7.9333 C.2     1  UNL1        0.3179
     31 C           2.2469    2.1944   -7.7818 C.3     1  UNL1        0.4694
     32 O           2.3217   -0.1070   -8.4810 O.2     1  UNL1       -0.2660
     33 F           3.0323    3.0793   -7.1347 F       1  UNL1       -0.1620
     34 F           1.9649    2.7249   -8.9855 F       1  UNL1       -0.1620
     35 F           1.0931    2.1131   -7.0949 F       1  UNL1       -0.1620
     36 H           9.8607   -0.8039   -3.5205 H       1  UNL1        0.0657
     37 H          10.5333   -3.0833   -4.1949 H       1  UNL1        0.0300
     38 H          11.7660   -1.8635   -4.3609 H       1  UNL1        0.0300
     39 H           8.0824   -1.9008   -5.6383 H       1  UNL1        0.1500
     40 H          11.6568   -3.6303   -6.1843 H       1  UNL1        0.0395
     41 H          12.8235   -2.2105   -7.4789 H       1  UNL1        0.0288
     42 H          12.2468   -0.8240   -6.5537 H       1  UNL1        0.0288
     43 H           5.3685   -1.4985   -3.4681 H       1  UNL1        0.0600
     44 H          11.5238   -1.5210   -9.2497 H       1  UNL1        0.0462
     45 H          10.7095   -0.2866   -8.2359 H       1  UNL1        0.0462
     46 H           9.1254   -2.2161   -8.8451 H       1  UNL1        0.1487
     47 H           6.7388   -4.1390   -3.3893 H       1  UNL1        0.0332
     48 H           5.5612   -3.4229   -6.9471 H       1  UNL1        0.0468
     49 H           3.9785   -2.9946   -6.2489 H       1  UNL1        0.0468
     50 H           5.7311   -5.1638   -5.2813 H       1  UNL1        0.0325
     51 H           4.3029   -1.3634   -7.6443 H       1  UNL1        0.0600
     52 H           3.2858   -2.4342   -4.1170 H       1  UNL1        0.0235
     53 H           3.2252   -2.9574   -2.4356 H       1  UNL1        0.0235
     54 H           2.3637   -3.8681   -3.6788 H       1  UNL1        0.0235
     55 H           5.3487   -6.1286   -3.0517 H       1  UNL1        0.0235
     56 H           3.5894   -6.1292   -3.2253 H       1  UNL1        0.0235
     57 H           4.3412   -5.3571   -1.8210 H       1  UNL1        0.0235
     58 H           4.5480    1.4861   -6.9628 H       1  UNL1        0.1497
     59 H           7.7382    0.6001   -9.4151 H       1  UNL1        0.0236
     60 H           7.7424    0.2895   -7.6829 H       1  UNL1        0.0236
     61 H           6.6896    1.5459   -8.3525 H       1  UNL1        0.0236
     62 H           7.3184   -1.8964   -9.7323 H       1  UNL1        0.0236
     63 H           5.8475   -2.6462   -9.1055 H       1  UNL1        0.0236
     64 H           7.1482   -2.1871   -7.9991 H       1  UNL1        0.0236
     65 H           5.8971   -0.2511  -10.9005 H       1  UNL1        0.0236
     66 H           4.8288    0.8499  -10.0377 H       1  UNL1        0.0236
     67 H           4.3938   -0.8597  -10.2022 H       1  UNL1        0.0236
@<TRIPOS>BOND
     1     1     2    3
     2     6     8    1
     3     8    12    1
     4    12    14    1
     5    14     9   am
     6     6     9    1
     7     9    13    2
     8     3     5    1
     9     5     7   am
    10     7    11    2
    11    10    15    1
    12    15    17    1
    13    17    19    1
    14    19    16    1
    15    10    16    1
    16    16    20    1
    17    19    20    1
    18    20    23    1
    19    20    24    1
    20    15    18   am
    21    18    22    2
    22    25    27    1
    23    25    28    1
    24    25    29    1
    25    21    26    1
    26    26    30   am
    27    30    32    2
    28    30    31    1
    29    31    33    1
    30    31    34    1
    31    31    35    1
    32     3     4    1
    33     3     2    1
    34     6     4    1
    35    10     7    1
    36    21    25    1
    37    21    18    1
    38     3    36    1
    39     4    37    1
    40     4    38    1
    41     5    39    1
    42     6    40    1
    43     8    41    1
    44     8    42    1
    45    10    43    1
    46    12    44    1
    47    12    45    1
    48    14    46    1
    49    16    47    1
    50    17    48    1
    51    17    49    1
    52    19    50    1
    53    21    51    1
    54    23    52    1
    55    23    53    1
    56    23    54    1
    57    24    55    1
    58    24    56    1
    59    24    57    1
    60    26    58    1
    61    27    59    1
    62    27    60    1
    63    27    61    1
    64    28    62    1
    65    28    63    1
    66    28    64    1
    67    29    65    1
    68    29    66    1
    69    29    67    1
